Version 4.1
SHEET 1 1140 680
WIRE 592 -272 544 -272
WIRE 592 -256 592 -272
WIRE 592 -160 592 -176
WIRE 448 -128 336 -128
WIRE 544 -128 544 -272
WIRE 544 -128 448 -128
WIRE 656 -128 544 -128
WIRE 832 -128 656 -128
WIRE 448 -112 448 -128
WIRE 656 -96 656 -128
WIRE 832 -96 832 -128
WIRE 336 -64 336 -128
WIRE 832 16 832 -16
WIRE 912 16 832 16
WIRE 1040 16 976 16
WIRE 832 48 832 16
WIRE 448 64 448 -32
WIRE 496 64 448 64
WIRE 560 96 560 64
WIRE 624 96 560 96
WIRE 656 96 656 -16
WIRE 656 96 624 96
WIRE 768 96 656 96
WIRE 112 112 32 112
WIRE 336 112 336 16
WIRE 336 112 176 112
WIRE 384 112 336 112
WIRE 624 128 624 96
WIRE 656 128 624 128
WIRE 32 144 32 112
WIRE 832 160 832 144
WIRE 992 160 832 160
WIRE 992 176 992 160
WIRE 656 208 656 128
WIRE 832 208 832 160
WIRE 448 240 448 160
FLAG 32 224 0
FLAG 336 304 0
FLAG 448 320 0
FLAG 832 288 0
FLAG 656 288 0
FLAG 992 240 0
FLAG 592 -160 0
FLAG 1120 16 0
SYMBOL voltage 32 128 R0
WINDOW 123 0 0 Left 0
WINDOW 39 0 0 Left 0
SYMATTR InstName V1
SYMATTR Value SINE(0 10m 100Hz)
SYMBOL polcap 176 96 R90
WINDOW 0 0 32 VBottom 2
WINDOW 3 32 32 VTop 2
SYMATTR InstName C1
SYMATTR Value 10µ
SYMBOL res 320 208 R0
SYMATTR InstName R1
SYMATTR Value 150k
SYMBOL res 432 224 R0
SYMATTR InstName R2
SYMATTR Value 100
SYMBOL res 320 -80 R0
SYMATTR InstName R3
SYMATTR Value 820k
SYMBOL res 432 -128 R0
SYMATTR InstName R4
SYMATTR Value 820
SYMBOL npn 384 64 R0
SYMATTR InstName Q1
SYMATTR Value 2N3904
SYMBOL cap 560 48 R90
WINDOW 0 0 32 VBottom 2
WINDOW 3 32 32 VTop 2
SYMATTR InstName C2
SYMATTR Value 0.1µ
SYMBOL res 640 -112 R0
SYMATTR InstName R5
SYMATTR Value 68k
SYMBOL res 816 -112 R0
SYMATTR InstName R6
SYMATTR Value 1.2k
SYMBOL res 640 192 R0
SYMATTR InstName R7
SYMATTR Value 6.2k
SYMBOL res 816 192 R0
SYMATTR InstName R8
SYMATTR Value 100
SYMBOL npn 768 48 R0
SYMATTR InstName Q2
SYMATTR Value 2N3904
SYMBOL voltage 592 -272 R0
WINDOW 123 0 0 Left 0
WINDOW 39 0 0 Left 0
SYMATTR InstName V2
SYMATTR Value 10
SYMBOL polcap 976 0 R90
WINDOW 0 0 32 VBottom 2
WINDOW 3 32 32 VTop 2
SYMATTR InstName C3
SYMATTR Value 10µ
SYMBOL polcap 976 176 R0
SYMATTR InstName C4
SYMATTR Value 100µ
SYMBOL res 1136 0 R90
WINDOW 0 0 56 VBottom 2
WINDOW 3 32 56 VTop 2
SYMATTR InstName R9
SYMATTR Value 10k
TEXT 0 344 Left 2 !.tran 0.1
TEXT 72 432 Left 2 ;.op
