Version 4.1
SHEET 1 1140 680
WIRE 128 64 0 64
WIRE 448 64 128 64
WIRE 128 128 128 64
WIRE 448 192 448 144
WIRE 496 192 448 192
WIRE 640 192 560 192
WIRE 448 224 448 192
WIRE 128 272 128 208
WIRE 128 272 80 272
WIRE 384 272 128 272
WIRE 128 336 128 272
WIRE 48 464 -48 464
WIRE 448 464 448 320
WIRE 448 464 112 464
WIRE -48 480 -48 464
WIRE 448 512 448 464
FLAG 16 272 0
FLAG 128 416 0
FLAG 448 592 0
FLAG -48 560 0
FLAG 640 192 out
FLAG -48 464 in
FLAG 0 144 0
SYMBOL res 432 48 R0
SYMATTR InstName R1
SYMATTR Value 10k
SYMBOL res 432 496 R0
SYMATTR InstName R2
SYMATTR Value 100
SYMBOL res 112 112 R0
SYMATTR InstName R3
SYMATTR Value 68k
SYMBOL res 112 320 R0
SYMATTR InstName R4
SYMATTR Value 4.7k
SYMBOL npn 384 224 R0
SYMATTR InstName Q1
SYMATTR Value 2N3904
SYMBOL polcap 80 256 R90
WINDOW 0 0 32 VBottom 2
WINDOW 3 32 32 VTop 2
SYMATTR InstName C1
SYMATTR Value 1µ
SYMBOL voltage -48 464 R0
WINDOW 123 24 124 Left 2
WINDOW 39 0 0 Left 0
SYMATTR Value2 AC 1 0
SYMATTR InstName V1
SYMATTR Value SINE(0 0.01 1k)
SYMBOL polcap 496 208 R270
WINDOW 0 32 32 VTop 2
WINDOW 3 0 32 VBottom 2
SYMATTR InstName C2
SYMATTR Value 1µ
SYMBOL polcap 112 448 R90
WINDOW 0 0 32 VBottom 2
WINDOW 3 32 32 VTop 2
SYMATTR InstName C3
SYMATTR Value 1µ
SYMBOL Misc\\battery 0 48 R0
WINDOW 123 0 0 Left 0
WINDOW 39 0 0 Left 0
SYMATTR InstName V2
SYMATTR Value 12
TEXT 200 656 Left 2 !.tran 10m
